267
BATWAW
Cl      5.004535    3.525265    9.731950
Cl      4.435525    9.712942    4.785200
Cl      5.002526   -1.535000    0.000000
Cl      2.007039    8.465559    6.139887
Cl      0.000000    8.668400    4.741406
Cl      4.073793   -1.864920    7.760646
O       9.219002    5.153884    9.731950
O       7.368713    6.025231    7.114445
O       4.756203    7.440088    8.153428
O       5.863793    0.051664    9.731950
O       4.394184    0.711156    7.093618
O       1.908568    2.120464    8.144864
N       7.601255    1.096379    8.625233
N       8.936793    3.140215    8.626011
N       7.617332    3.771101    6.682541
N       6.455196    1.601920    6.545904
N       5.833074    4.830206    5.880823
N       4.622707    2.688591    5.940966
N       3.813403    5.874748    6.734120
N       2.587246    3.766073    6.674561
N       2.674234    6.520197    8.522658
N       1.515830    4.366620    8.516819
C       6.907361    0.706475    9.731950
C       8.859279    1.728652    8.956314
H       9.637578    1.220511    8.587473
C       9.026939    3.938921    9.731950
C       8.943684    3.626338    7.267820
H       9.471066    3.002734    6.709206
H       9.399294    4.505834    7.246410
C       7.259907    0.653597    7.294486
H       6.766688   -0.201107    7.361247
H       8.095910    0.478496    6.792901
C       6.974827    2.765740    5.853184
H       7.559053    2.499967    5.087863
C       5.683501    3.487471    5.354908
H       5.629815    3.489898    4.356021
C       6.971956    4.977222    6.626095
C       5.091811    1.590998    6.597678
C       4.857833    5.892952    5.740099
H       5.328372    6.763086    5.788564
H       4.444138    5.826898    4.842618
C       3.209655    2.894899    5.712265
H       3.086207    3.278389    4.807583
H       2.750313    2.018004    5.732119
C       2.011920    3.311329    7.817675
C       2.535570    5.213696    6.567898
H       2.069912    5.507901    5.732119
C       3.838380    6.678655    7.842005
C       1.754975    5.639661    7.845314
H       0.898589    6.104287    7.618170
C       2.375374    7.245049    9.731950
H       1.412478    7.480829    9.731950
H       2.890986    8.089351    9.731950
C       0.756480    4.211109    9.731950
H       0.022967    4.876842    9.731950
H       0.341636    3.311329    9.731950
O       7.368713    6.025231   12.349455
O       4.756203    7.440088   11.310472
O       4.394184    0.711156   12.370282
O       1.908568    2.120464   11.319036
N       7.601255    1.096379   10.838667
N       8.936793    3.140215   10.837889
N       7.617332    3.771101   12.781359
N       6.455196    1.601920   12.917996
N       5.833074    4.830206   13.583077
N       4.622707    2.688591   13.522934
N       3.813403    5.874748   12.729780
N       2.587246    3.766073   12.789339
N       2.674234    6.520197   10.941242
N       1.515830    4.366620   10.947081
C       8.859279    1.728652   10.507586
H       9.637578    1.220511   10.876427
C       8.943684    3.626338   12.196080
H       9.471066    3.002734   12.754694
H       9.399294    4.505834   12.217490
C       7.259907    0.653597   12.169414
H       6.766688   -0.201107   12.102653
H       8.095910    0.478496   12.670999
C       6.974827    2.765740   13.610716
H       7.559053    2.499967   14.376037
C       5.683501    3.487471   14.108992
H       5.629815    3.489898   15.107879
C       6.971956    4.977222   12.837805
C       5.091811    1.590998   12.866222
C       4.857833    5.892952   13.723801
H       5.328372    6.763086   13.675336
H       4.444138    5.826898   14.621282
C       3.209655    2.894899   13.751635
H       3.086207    3.278389   14.656317
H       2.750313    2.018004   13.731781
C       2.011920    3.311329   11.646225
C       2.535570    5.213696   12.896002
H       2.069912    5.507901   13.731781
C       3.838380    6.678655   11.621895
C       1.754975    5.639661   11.618586
H       0.898589    6.104287   11.845730
O       5.812691    2.141095    0.000000
O       4.306622    1.484203    2.689132
O       1.748659    0.086511    1.622705
O       8.853251   -3.039141    0.000000
O       7.213111   -3.911009    2.668890
O       4.665196   -5.221497    1.608886
N       8.788368   -1.019057    1.104187
N       7.525464    1.058758    1.107885
N       6.360170    0.546629    3.169112
N       7.486420   -1.641968    3.057195
N       4.516484   -0.507968    3.821347
N       5.698142   -2.669347    3.882853
N       2.479301   -1.571408    3.062645
N       3.677323   -3.705568    3.032865
N       1.426832   -2.156351    1.207346
N       2.581504   -4.315303    1.210265
C       8.795259   -1.809962    0.000000
C       8.761956    0.394932    0.777972
H       9.554322    0.877242    1.150316
C       6.851953    1.478829    0.000000
C       7.174354    1.493565    2.438243
H       6.686303    2.350870    2.374596
H       8.006912    1.659132    2.948781
C       6.868891   -0.618057    3.872148
H       7.464314   -0.350203    4.628515
C       8.797555   -1.535000    2.453425
H       9.359101   -0.943122    3.014958
H       9.218428   -2.430619    2.448559
C       4.992478    0.591185    3.155098
C       5.572110   -1.317944    4.393975
H       5.532205   -1.310662    5.393447
C       6.830709   -2.842368    3.138359
C       3.103145   -0.708902    4.038370
H       2.649831    0.171634    4.023188
H       2.971371   -1.099153    4.939938
C       4.708260   -3.710422    4.037007
H       5.164731   -4.587317    4.017349
H       4.283368   -3.614723    4.926313
C       1.885601   -1.099326    1.929067
C       2.413557   -3.017123    3.165609
H       1.920625   -3.306128    3.988153
C       3.736750   -4.478442    1.906684
C       1.654781   -3.428179    1.870092
H       0.792366   -3.890378    2.080691
C       0.642792   -2.007601    0.000000
H      -0.080385   -2.683737    0.000000
H       0.218188   -1.111289    0.000000
C       2.293841   -5.057145    0.000000
H       2.827827   -5.891045    0.000000
H       1.337835   -5.313729    0.000000
O       4.306622    1.484203   -2.689132
O       1.748659    0.086511   -1.622705
O       7.213111   -3.911009   -2.668890
O       4.665196   -5.221497   -1.608886
N       8.788368   -1.019057   -1.104187
N       7.525464    1.058758   -1.107885
N       6.360170    0.546629   -3.169112
N       7.486420   -1.641968   -3.057195
N       4.516484   -0.507968   -3.821347
N       5.698142   -2.669347   -3.882853
N       2.479301   -1.571408   -3.062645
N       3.677323   -3.705568   -3.032865
N       1.426832   -2.156351   -1.207346
N       2.581504   -4.315303   -1.210265
C       8.761956    0.394932   -0.777972
H       9.554322    0.877242   -1.150316
C       7.174354    1.493565   -2.438243
H       6.686303    2.350870   -2.374596
H       8.006912    1.659132   -2.948781
C       6.868891   -0.618057   -3.872148
H       7.464314   -0.350203   -4.628515
C       8.797555   -1.535000   -2.453425
H       9.359101   -0.943122   -3.014958
H       9.218428   -2.430619   -2.448559
C       4.992478    0.591185   -3.155098
C       5.572110   -1.317944   -4.393975
H       5.532205   -1.310662   -5.393447
C       6.830709   -2.842368   -3.138359
C       3.103145   -0.708902   -4.038370
H       2.649831    0.171634   -4.023188
H       2.971371   -1.099153   -4.939938
C       4.708260   -3.710422   -4.037007
H       5.164731   -4.587317   -4.017349
H       4.283368   -3.614723   -4.926313
C       1.885601   -1.099326   -1.929067
C       2.413557   -3.017123   -3.165609
H       1.920625   -3.306128   -3.988153
C       3.736750   -4.478442   -1.906684
C       1.654781   -3.428179   -1.870092
H       0.792366   -3.890378   -2.080691
O       3.376454    0.705088    9.731950
H       3.149366    1.645262    9.731950
H       4.337915    0.573848    9.731950
Cl      1.851724   -2.340468    8.497939
Cl      1.510088   -2.633460    7.509173
O       6.422181    5.939241    9.731950
H       6.686303    6.886177    9.731950
H       5.428853    5.913582    9.731950
O       2.477578    5.188037    2.926787
H       2.494803    6.128559    3.032476
H       1.656504    4.769354    3.166777
O       2.411548    5.707275    3.005226
H       1.521572    5.676068    3.357523
H       2.853665    6.530773    3.108385
O      -1.194290    4.494219    6.416664
H      -0.789495    5.093552    5.852795
H      -2.038332    4.812696    6.752027
O      -2.098621    4.888978    6.514567
H      -1.194290    4.502367    6.351071
H      -1.986656    5.792225    6.853239
O       1.498605   10.274481    8.523436
H       2.092879   11.041808    8.486260
H       1.372285    9.918383    7.647366
O       2.256520   10.339668    7.986038
H       1.429703   10.237380    8.523242
H       2.101491   11.021004    7.308694
O       1.854595   10.679469    8.494046
H       1.128260   10.034540    8.517403
H       2.460353   10.495699    7.769989
O       0.261251   -0.265253    8.373370
H      -0.605758    0.124825    8.188463
H       0.175124   -1.017670    8.992322
O       0.318382   -5.545175    4.192135
H       1.119647   -5.303327    4.681068
H       0.364603   -6.248183    3.633910
O       1.917467   11.152763    3.762372
H       2.026848   10.556378    2.950727
H       0.895718   11.343468    3.775997
O       1.102709    2.465293    3.034422
H       0.706239    1.998933    3.812978
H       1.619182    1.792625    2.508897
H       1.538797    3.323465    2.993548
O      -0.066030    1.125158    5.504391
H       0.812462    0.726412    5.298074
H      -0.511018    0.535707    6.179788
O      -0.060289    1.705941    5.362304
H      -0.430633    2.473961    5.800242
H       0.272735    1.953857    4.470858
O       6.562855   -4.654931    0.000000
H       5.698717   -5.116090    0.000000
H       7.286319   -5.318930    0.000000
O       6.346389   -3.798493    0.000000
H       5.385790   -3.869574    0.000000
H       6.660465   -2.888311    0.000000
O       3.206784    1.406014    0.000000
H       4.191499    1.449356    0.000000
H       2.850794    2.319664    0.000000
O       3.829767   18.019870    0.000000
H       3.000080   17.492831    0.000000
H       4.596295   17.407881    0.000000
O       2.375374   10.022404    2.512789
H       1.653633   10.445422    2.962406
H       2.394322    9.072347    2.563396
O       0.967490    9.973861    1.769269
H       1.053617    9.223178    1.146424
H       1.802919   10.001600    2.327882
O       1.268933    4.755484    0.000000
H       2.199102    4.538774    0.000000
H       1.102422    5.712476    0.000000
O       1.576119    7.704474    1.547380
H       2.313937    7.092485    1.738126
H       0.869880    7.206908    1.064675
O       2.339775    7.933320    1.099710
H       2.187618    7.050877    0.702647
H       1.891917    7.954124    1.979479
O       4.013504    4.030806    1.747858
H       4.389591    3.235047    2.203313
H       3.516840    4.549176    2.436880
O       4.131211    3.697939    0.949838
H       3.930248    3.394545    1.858802
H       4.980994    3.273188    0.661773
